Circuit: * C:\Users\Usuario\Desktop\Electrónica Industrial\TRABAJOS PRÁCTICOS\tetempole_pfc.doc\Draft1.asc


Date: Tue Mar 19 09:17:59 2024
Total elapsed time: 0.026 seconds.

tnom = 27
temp = 27
method = trap
totiter = 0
traniter = 0
tranpoints = 0
accept = 0
rejected = 0
matrix size = 5
fillins = 1
solver = Normal

